2
R0102 1 2 10000
C0100 1 0 0.000000047
V0200 2 0 10 0 10
.AC LIN 100 10 10000
