4
R0100 1 0 10000
L0203 2 3 1
L0104 1 4 10
K0200 L0203 L0104 0.9
V0300 3 0 10 0 10
.AC LIN 1000 10 10000
